<edges xmlns:xsi="http://www.w3.org/2001/XMLSchema-instance" xsi:noNamespaceSchemaLocation="http://sumo.dlr.de/xsd/edges_file.xsd"><edge id="0fi" from="1" to="5" priority="2" numLanes="3" speed="10.755" /><edge id="1fi" from="2" to="4" priority="3" numLanes="3" speed="14.050" /><edge id="2fi" from="3" to="1" priority="3" numLanes="2" speed="10.607" /><edge id="3fi" from="5" to="4" priority="2" numLanes="1" speed="13.510" /><edge id="4fi" from="3" to="2" priority="1" numLanes="1" speed="10.468" /><edge id="5fi" from="3" to="0" priority="3" numLanes="2" speed="13.314" /></edges>
