<edges xmlns:xsi="http://www.w3.org/2001/XMLSchema-instance" xsi:noNamespaceSchemaLocation="http://sumo.dlr.de/xsd/edges_file.xsd">
    <edge id="0fi" from="4" to="0" priority="3" numLanes="3" speed="12.140" />
    <edge id="1fi" from="2" to="4" priority="2" numLanes="3" speed="13.973" />
    <edge id="2fi" from="1" to="2" priority="2" numLanes="1" speed="11.329" />
    <edge id="3fi" from="1" to="3" priority="1" numLanes="3" speed="13.968" />
    <edge id="4fi" from="2" to="5" priority="3" numLanes="3" speed="13.769" />
    <edge id="5fi" from="3" to="2" priority="1" numLanes="2" speed="10.576" />
</edges>
