<types xmlns:xsi="http://www.w3.org/2001/XMLSchema-instance" xsi:noNamespaceSchemaLocation="http://sumo.dlr.de/xsd/types_file.xsd">
    <type id="a" priority="1" numLanes="3" speed="15.802" />
    <type id="b" priority="1" numLanes="2" speed="7.698" />
    <type id="c" priority="2" numLanes="3" speed="3.729" />
    <type id="d" priority="1" numLanes="2" speed="13.659" />
    <type id="e" priority="3" numLanes="3" speed="19.337" />
    <type id="f" priority="1" numLanes="1" speed="12.118" />
</types>
