<types xmlns:xsi="http://www.w3.org/2001/XMLSchema-instance" xsi:noNamespaceSchemaLocation="http://sumo.dlr.de/xsd/types_file.xsd">
    <type id="a" priority="1" numLanes="2" speed="10.407" />
    <type id="b" priority="3" numLanes="2" speed="14.687" />
    <type id="c" priority="2" numLanes="2" speed="16.59" />
    <type id="d" priority="1" numLanes="1" speed="19.397" />
    <type id="e" priority="1" numLanes="3" speed="10.301" />
</types>
