<routes>
    <vType id="auto" vClass="passenger" length="5" maxspeed="35"/>
    <route id="route" edges="gneE0"/>
    <vehicle id="vehicle_1" type="auto" route="route" depart="2" departLane="1" departPos="0" color="0, 1, 0" departSpeed="30"/>
    <vehicle id="vehicle_2" type="auto" route="route" depart="3" departLane="1" departPos="0" color="1, 0, 0" departSpeed="30"/>
</routes>