<?xml version="1.0" encoding="UTF-8"?>

<!-- generated on 2024-01-30 17:44:50 by Eclipse SUMO netedit Version 1.19.0
<configuration xmlns:xsi="http://www.w3.org/2001/XMLSchema-instance" xsi:noNamespaceSchemaLocation="http://sumo.dlr.de/xsd/neteditConfiguration.xsd">

    <input>
        <sumo-net-file value="E:\sumo\sumo-1.19.0\lsm_test\circle\circle.net.xml"/>
    </input>

    <output>
        <output-file value="E:\sumo\sumo-1.19.0\lsm_test\circle\circle.net.xml"/>
    </output>

    <processing>
        <geometry.min-radius.fix.railways value="false"/>
        <geometry.max-grade.fix value="false"/>
        <offset.disable-normalization value="true"/>
        <lefthand value="0"/>
    </processing>

    <junctions>
        <no-turnarounds value="true"/>
        <junctions.corner-detail value="5"/>
        <junctions.limit-turn-speed value="5.50"/>
        <rectangular-lane-cut value="0"/>
    </junctions>

    <pedestrian>
        <walkingareas value="0"/>
    </pedestrian>

</configuration>
-->

<net version="1.16" junctionCornerDetail="5" limitTurnSpeed="5.50" xmlns:xsi="http://www.w3.org/2001/XMLSchema-instance" xsi:noNamespaceSchemaLocation="http://sumo.dlr.de/xsd/net_file.xsd">

    <location netOffset="0.00,0.00" convBoundary="-3.14,20.24,88.66,80.80" origBoundary="-10000000000.00,-10000000000.00,10000000000.00,10000000000.00" projParameter="!"/>

    <edge id=":J0_0" function="internal">
        <lane id=":J0_0_0" index="0" speed="4.25" length="1.24" shape="20.22,78.76 20.50,79.00 20.72,79.13 20.97,79.18 21.33,79.19"/>
    </edge>
    <edge id=":J10_0" function="internal">
        <lane id=":J10_0_0" index="0" speed="4.00" length="1.76" shape="-1.07,57.72 -1.14,58.17 -1.09,58.59 -0.92,58.97 -0.62,59.32"/>
    </edge>
    <edge id=":J4_0" function="internal">
        <lane id=":J4_0_0" index="0" speed="13.89" length="0.85" shape="51.48,78.86 51.73,78.85 51.90,78.82 52.06,78.76 52.28,78.63"/>
    </edge>
    <edge id=":J5_0" function="internal">
        <lane id=":J5_0_0" index="0" speed="13.89" length="0.74" shape="74.28,65.50 74.47,65.38 74.58,65.29 74.68,65.18 74.80,65.00"/>
    </edge>
    <edge id=":J6_0" function="internal">
        <lane id=":J6_0_0" index="0" speed="3.96" length="1.95" shape="86.11,47.59 86.33,47.13 86.40,46.67 86.31,46.21 86.05,45.77"/>
    </edge>
    <edge id=":J7_0" function="internal">
        <lane id=":J7_0_0" index="0" speed="4.13" length="1.38" shape="70.45,24.64 70.21,24.38 69.94,24.18 69.62,24.06 69.28,24.00"/>
    </edge>
    <edge id=":J8_0" function="internal">
        <lane id=":J8_0_0" index="0" speed="13.89" length="0.66" shape="41.04,21.89 40.84,21.87 40.71,21.88 40.57,21.91 40.39,21.97"/>
    </edge>
    <edge id=":J9_0" function="internal">
        <lane id=":J9_0_0" index="0" speed="4.06" length="1.54" shape="6.29,33.94 5.93,34.11 5.65,34.35 5.43,34.65 5.28,35.02"/>
    </edge>

    <edge id="E10" from="J9" to="J10" priority="-1">
        <lane id="E10_0" index="0" speed="13.89" length="23.57" shape="5.28,35.02 -1.07,57.72"/>
    </edge>
    <edge id="E5" from="J4" to="J5" priority="-1">
        <lane id="E5_0" index="0" speed="13.89" length="25.62" shape="52.28,78.63 74.28,65.50"/>
    </edge>
    <edge id="E6" from="J5" to="J6" priority="-1">
        <lane id="E6_0" index="0" speed="13.89" length="20.76" shape="74.80,65.00 86.11,47.59"/>
    </edge>
    <edge id="E7" from="J6" to="J7" priority="-1">
        <lane id="E7_0" index="0" speed="13.89" length="26.27" shape="86.05,45.77 70.45,24.64"/>
    </edge>
    <edge id="E8" from="J7" to="J8" priority="-1">
        <lane id="E8_0" index="0" speed="13.89" length="28.32" shape="69.28,24.00 41.04,21.89"/>
    </edge>
    <edge id="E9" from="J8" to="J9" priority="-1">
        <lane id="E9_0" index="0" speed="13.89" length="36.14" shape="40.39,21.97 6.29,33.94"/>
    </edge>
    <edge id="edge1" from="J0" to="J4" priority="-1">
        <lane id="edge1_0" index="0" speed="13.89" length="30.15" shape="21.33,79.19 51.48,78.86"/>
    </edge>
    <edge id="edge2" from="J10" to="J0" priority="-1">
        <lane id="edge2_0" index="0" speed="13.89" length="28.51" shape="-0.62,59.32 20.22,78.76"/>
    </edge>

    <junction id="J0" type="priority" x="20.07" y="80.80" incLanes="edge2_0" intLanes=":J0_0_0" shape="21.35,80.79 21.32,77.59 19.13,79.93 19.83,80.51 20.12,80.67 20.44,80.75 20.83,80.78">
        <request index="0" response="0" foes="0" cont="0"/>
    </junction>
    <junction id="J10" type="priority" x="-3.14" y="59.16" incLanes="E10_0" intLanes=":J10_0_0" shape="-1.72,60.49 0.47,58.15 -2.61,57.28 -2.75,58.47 -2.65,59.02 -2.45,59.54 -2.14,60.03">
        <request index="0" response="0" foes="0" cont="0"/>
    </junction>
    <junction id="J4" type="priority" x="52.36" y="80.45" incLanes="edge1_0" intLanes=":J4_0_0" shape="53.10,80.01 51.46,77.26 51.50,80.46 52.12,80.43 52.34,80.39 52.55,80.31 52.79,80.19">
        <request index="0" response="0" foes="0" cont="0"/>
    </junction>
    <junction id="J5" type="priority" x="75.74" y="66.49" incLanes="E5_0" intLanes=":J5_0_0" shape="76.14,65.87 73.46,64.12 75.10,66.87 75.56,66.58 75.71,66.46 75.84,66.31 75.97,66.13">
        <request index="0" response="0" foes="0" cont="0"/>
    </junction>
    <junction id="J6" type="priority" x="88.66" y="46.60" incLanes="E6_0" intLanes=":J6_0_0" shape="87.34,44.82 84.77,46.72 87.45,48.46 87.98,47.23 88.03,46.62 87.94,46.01 87.71,45.41">
        <request index="0" response="0" foes="0" cont="0"/>
    </junction>
    <junction id="J7" type="priority" x="70.86" y="22.51" incLanes="E7_0" intLanes=":J7_0_0" shape="69.16,25.59 71.73,23.69 71.08,23.02 70.71,22.78 70.31,22.59 69.87,22.47 69.40,22.40">
        <request index="0" response="0" foes="0" cont="0"/>
    </junction>
    <junction id="J8" type="priority" x="40.49" y="20.24" incLanes="E8_0" intLanes=":J8_0_0" shape="40.92,23.48 41.16,20.29 40.67,20.26 40.49,20.28 40.32,20.31 40.12,20.37 39.86,20.46">
        <request index="0" response="0" foes="0" cont="0"/>
    </junction>
    <junction id="J9" type="priority" x="4.19" y="32.98" incLanes="E9_0" intLanes=":J9_0_0" shape="6.82,35.45 5.76,32.43 4.84,32.91 4.47,33.24 4.17,33.63 3.92,34.08 3.74,34.58">
        <request index="0" response="0" foes="0" cont="0"/>
    </junction>

    <connection from="E10" to="edge2" fromLane="0" toLane="0" via=":J10_0_0" dir="r" state="M"/>
    <connection from="E5" to="E6" fromLane="0" toLane="0" via=":J5_0_0" dir="s" state="M"/>
    <connection from="E6" to="E7" fromLane="0" toLane="0" via=":J6_0_0" dir="r" state="M"/>
    <connection from="E7" to="E8" fromLane="0" toLane="0" via=":J7_0_0" dir="r" state="M"/>
    <connection from="E8" to="E9" fromLane="0" toLane="0" via=":J8_0_0" dir="s" state="M"/>
    <connection from="E9" to="E10" fromLane="0" toLane="0" via=":J9_0_0" dir="r" state="M"/>
    <connection from="edge1" to="E5" fromLane="0" toLane="0" via=":J4_0_0" dir="s" state="M"/>
    <connection from="edge2" to="edge1" fromLane="0" toLane="0" via=":J0_0_0" dir="s" state="M"/>

    <connection from=":J0_0" to="edge1" fromLane="0" toLane="0" dir="s" state="M"/>
    <connection from=":J10_0" to="edge2" fromLane="0" toLane="0" dir="r" state="M"/>
    <connection from=":J4_0" to="E5" fromLane="0" toLane="0" dir="s" state="M"/>
    <connection from=":J5_0" to="E6" fromLane="0" toLane="0" dir="s" state="M"/>
    <connection from=":J6_0" to="E7" fromLane="0" toLane="0" dir="r" state="M"/>
    <connection from=":J7_0" to="E8" fromLane="0" toLane="0" dir="r" state="M"/>
    <connection from=":J8_0" to="E9" fromLane="0" toLane="0" dir="s" state="M"/>
    <connection from=":J9_0" to="E10" fromLane="0" toLane="0" dir="r" state="M"/>

</net>
